85
Coordinates from ORCA-job td_Th2-Pt-cat-tzvp
  C   0.77201146300000      5.11427591400000      0.00561269700000
  C   -0.63580149800000      5.10512506300000      0.02168849800000
  C   1.43654573600000      3.87856782200000     -0.00711882500000
  C   0.70833632600000      2.68701507400000     -0.00316399700000
  C   -0.71147645800000      2.70067542900000      0.01437303000000
  C   -1.41068606700000      3.92903609100000      0.02637088000000
  H   -1.15878718900000      6.05720172000000      0.03094592400000
  H   2.52648914900000      3.80516910500000     -0.02009997100000
  Pt  0.00000000000000      0.00000000000000      0.00000000000000
  N   1.29984702800000     -1.52800707400000     -0.02086596900000
  N   -1.28277817500000     -1.54774237300000      0.02307271300000
  C   0.74515394700000     -2.78228504600000     -0.01168041100000
  C   1.58673334300000     -3.90632012500000     -0.02684795300000
  C   2.96182869700000     -3.74366468400000     -0.05501894400000
  C   3.52905263800000     -2.44355565800000     -0.06460175200000
  C   2.63205388900000     -1.36503472500000     -0.04214061100000
  H   3.60602856100000     -4.62520422500000     -0.07752271100000
  H   1.15581276100000     -4.90845309600000     -0.02114417100000
  C   -0.70776368000000     -2.79342805600000      0.01495383200000
  C   -1.52987292100000     -3.93180524200000      0.03352554800000
  C   -2.90756230100000     -3.79379728800000      0.06594070000000
  C   -3.49664698800000     -2.50360939900000      0.07624419900000
  C   -2.61761125100000     -1.41058602800000      0.04803180200000
  H   -2.96746672600000     -0.37697239300000      0.03917494200000
  H   -3.53624671700000     -4.68636161200000      0.09205311400000
  H   -1.08122154500000     -4.92613952100000      0.02817661400000
  C   -4.93999094400000     -2.28893005800000      0.11349783600000
  C   4.96916453400000     -2.20653006200000     -0.09485009300000
  C   -5.63578965100000     -1.10119870500000      0.28317896800000
  C   -7.04020970200000     -1.26180182200000      0.27722675400000
  C   -7.44732446100000     -2.57588829000000      0.10109628500000
  S   -6.06133324300000     -3.60752141400000     -0.07043446500000
  H   -5.15055359300000     -0.13499644000000      0.42786121500000
  H   -7.74009494800000     -0.43646201400000      0.41880963100000
  C   5.64744679200000     -1.00757612900000     -0.25473098200000
  C   7.05420505200000     -1.14621715800000     -0.24368958500000
  C   7.48080053200000     -2.45481642800000     -0.07308091200000
  S   6.11012410100000     -3.50856721700000      0.08666458500000
  H   7.74206480800000     -0.30954380100000     -0.37759542900000
  H   5.14687812200000     -0.04876190100000     -0.39552991200000
  C   8.83472798700000     -2.97492715900000     -0.01187140100000
  C   9.27416661200000     -4.28136991200000     -0.15423985400000
  C   10.68411270000000     -4.41773097100000     -0.03299936800000
  C   11.31187716600000     -3.21734915100000      0.19987911600000
  S   10.18823589500000     -1.92209416700000      0.28351410300000
  H   2.95983970600000     -0.32332934800000     -0.03507690000000
  H   11.21336359900000     -5.36789717400000     -0.12211808800000
  H   12.37579435300000     -3.02428590200000      0.32827650400000
  H   8.60072480300000     -5.11598030300000     -0.35872289500000
  C   -8.79334012500000     -3.11642255600000      0.04277172100000
  C   -9.21188651900000     -4.43046047500000      0.17819326600000
  C   -10.62011175300000     -4.58776416900000      0.06268766600000
  C   -11.26740879300000     -3.39563052000000     -0.15891245600000
  S   -10.16433896500000     -2.08260211300000     -0.23870176500000
  H   -8.52465883600000     -5.25595642600000      0.37361530400000
  H   -11.13421251600000     -5.54658840600000      0.14767872000000
  H   -12.33477995100000     -3.21815523400000     -0.28098303000000
  O   1.31092965700000      1.48310147100000     -0.01595055900000
  O   -1.31374311200000      1.49122329300000      0.01757278300000
  C   -2.95354557700000      3.96608120300000      0.03821425900000
  C   -3.50617682400000      5.40410292300000      0.05513787000000
  H   -3.18325013900000      5.96131684000000      0.94888222400000
  H   -3.19842139400000      5.97655484900000     -0.83423733700000
  H   -4.60819428500000      5.37515247600000      0.06386327400000
  C   -3.49874700600000      3.26817075700000     -1.23111754300000
  H   -3.16870140100000      3.79933063400000     -2.13890129600000
  H   -3.14321686300000      2.23090533800000     -1.29808453700000
  H   -4.60301479500000      3.26308047000000     -1.22574649900000
  C   -3.48452083400000      3.24534182400000      1.30085680200000
  H   -3.13279252000000      2.20541033100000      1.34147280500000
  H   -3.13948510700000      3.75552050400000      2.21515241800000
  H   -4.58885793700000      3.24734517900000      1.31020200700000
  C   1.59557405900000      6.41994798000000      0.00179279000000
  C   0.70728264900000      7.67802277000000      0.01418181900000
  H   0.05274521400000      7.72737126000000     -0.87038990200000
  H   0.07070968800000      7.72238789400000      0.91201624400000
  H   1.33834038700000      8.58189905600000      0.01044353200000
  C   2.47852824600000      6.47242481200000     -1.26733506700000
  H   3.08151800900000      7.39676601000000     -1.28589479400000
  H   3.17236451400000      5.61905213600000     -1.31757860800000
  H   1.85821252700000      6.45069622500000     -2.17801721100000
  C   2.50240492000000      6.46433563000000      1.25428926100000
  H   1.89935276900000      6.43792030600000      2.17636881600000
  H   3.19601465900000      5.60990805400000      1.28658838200000
  H   3.10656514200000      7.38802481400000      1.26686944000000
